24

S     2.176147     .000148    -.643131
C      .948728    1.239374    -.031432
C     -.504662     .701898   -1.530980
C     -.504589    -.701922   -1.530988
C      .948952   -1.239259    -.031462
C    -1.836598    1.175335   -1.014972
N    -2.581138    -.000120    -.599507
C    -1.836474   -1.175504   -1.014956
C      .330281    -.707810    1.107909
C      .330179     .707780    1.107944
O    -2.272610   -2.302966    -.935265
O    -2.272854    2.302746    -.935311
C    -4.035700    -.000197    -.401134
Cl     1.090440    2.886235    -.221925
Cl     -.384988    1.608409    2.286563
Cl     -.384760   -1.608600    2.286480
Cl     1.090877   -2.886088    -.222056
O    3.360762     .000258     .177519
O    2.354803     .000172   -2.072203
H    -4.323352     .893073     .167631
H    -4.579957    -.000312   -1.355743
H    -4.323233    -.893414     .167775
H      .039050   -1.317016   -2.262298
H      .038959    1.317056   -2.262250
